21

C      -0.517433000000000      3.447825000000000     -0.090000000000000
C      -0.625102000000000      2.026054000000000     -0.200000000000000
C       0.197096000000000      0.826539000000000     -0.160000000000000
C       1.469860000000000      1.230813000000000     -0.040000000000000
C       1.853261000000000      2.721230000000000     -0.270000000000000
C       1.189559000000000      3.662465000000000     -0.040000000000000
C       3.580946000000000      2.530780000000000     -0.120000000000000
C       3.666413000000000      1.109967000000000     -0.110000000000000
C       4.945832000000000      0.656398000000000      0.090000000000000
C       4.454864000000000      3.449116000000000     -0.070000000000000
C       5.802921000000000      2.911605000000000     -0.300000000000000
N       6.131176000000000      1.631932000000000      0.070000000000000
N       2.735076000000000      0.638422000000000      0.020000000000000
H       1.392810000000000      4.851969000000000     -0.090000000000000
H      -1.222673000000000      4.150435000000000     -0.430000000000000
H      -1.695367000000000      1.895142000000000     -0.180000000000000
H      -0.130083000000000     -0.249969000000000     -0.110000000000000
H       5.610159000000000     -0.073025000000000     -0.110000000000000
H       4.126495000000000      4.731584000000000     -0.380000000000000
H       6.475091000000000      3.824932000000000     -0.020000000000000
H       2.650295000000000     -0.467087000000000      0.070000000000000
