21

C      -0.334896321301940      3.286140483931280     -0.188138761596660
C      -0.754731437804650      1.953908434684210     -0.109226687783460
C       0.202189593088100      0.915196050930150     -0.039378052703220
C       1.540988831308630      1.282619901102100     -0.053229226729220
C       1.997007854642290      2.647188332762930     -0.135090052412860
C       1.028412385547820      3.656096162177180     -0.202759669683830
C       3.428261211186490      2.610989196650740     -0.126791919130930
C       3.822524498305390      1.240195124200230     -0.040791271706290
C       5.144013979318430      0.845274046690060     -0.012906129319040
C       4.473587138619490      3.542832389008410     -0.181471038235190
C       5.793338045089820      3.041675458831170     -0.146704865128190
N       6.153211400439860      1.758756253578940     -0.066423529694120
N       2.659414155130020      0.487074557972960      0.001151927365510
H       1.313010662048390      4.706190829012390     -0.265992126055870
H      -1.089043870255390      4.073731348775040     -0.241570904022790
H      -1.817443799066190      1.715442191503460     -0.101603687772610
H      -0.098702007720330     -0.131589529170760      0.022738994978120
H       5.431673413559730     -0.207901209563670      0.052551781826970
H       4.296350341648960      4.615996120348080     -0.248868721405650
H       6.621996200069490      3.756379031859360     -0.188824985494710
H       2.635656624345540     -0.524470329984280      0.062729168204050
