6 
not altered
C  -0.03169250  -0.07561723   0.69767616
C  -0.19603066  -0.15607371  -0.69862041
H   0.92540693  -0.03041899   1.21195234
H  -0.86237535   0.17603623   1.34412652
H   0.54463858  -0.68432192  -1.29254799
H   0.45154100   0.80554462  -0.55572362
6 
x vector 
C  -0.03169250  -0.07561723   0.69767616   0.23029604   0.25591515  -0.51933582
C  -0.19603066  -0.15607371  -0.69862041  -0.53497432  -0.35303293   0.02052853
H   0.92540693  -0.03041899   1.21195234   0.01498778  -0.02276715   0.07071760
H  -0.86237535   0.17603623   1.34412652  -0.00295100   0.02414528   0.00450580
H   0.54463858  -0.68432192  -1.29254799   0.15129795   0.11354735   0.05628718
H   0.45154100   0.80554462  -0.55572362   0.14134356  -0.01780769   0.36729672
6 
y vector 
C  -0.03169250  -0.07561723   0.69767616  -0.30638065   0.13405501   0.07564830 
C  -0.19603066  -0.15607371  -0.69862041  -0.03026555  -0.00579798   0.09910853 
H   0.92540693  -0.03041899   1.21195234   0.02429376   0.43940054  -0.08216059 
H  -0.86237535   0.17603623   1.34412652  -0.04916514  -0.33608233   0.09242446 
H   0.54463858  -0.68432192  -1.29254799  -0.19142648   0.12210172  -0.24716702 
H   0.45154100   0.80554462  -0.55572362   0.55294406  -0.35367696   0.06214632 
