21
Coordinates from ORCA-job /gpfs/scratch/uam77/uam121718/17194014/opt_cont
  C   -0.02668502025717      3.32460881398419     -0.12448142670557
  C   -0.67167845994024      2.06699674137701     -0.17217711860491
  C   0.08754475773435      0.93848444237335     -0.11152294320950
  C   1.52636575812685      0.98517686034624     -0.01469090039155
  C   2.18515489963482      2.28022826189346     -0.03951676560476
  C   1.34425390314728      3.41220298614819     -0.05824338762140
  C   3.62514286753359      2.48774884938208     -0.08685530269343
  C   4.73401485513639      1.52008109020503      0.02283844999462
  C   4.68131457090114      0.20608332342211      0.20814161137446
  C   4.25186414168776      3.69080483005902     -0.32074817893280
  C   5.66600819710426      3.44582040175473     -0.33905789190778
  N   5.97241005428861      2.19650253564197     -0.14545544139953
  N   2.23507053006922     -0.11655455531992      0.10778421601908
  H   1.79734596974982      4.39930499094780     -0.02144117582801
  H   -0.61874699204061      4.23876805324012     -0.14518506031074
  H   -1.75647127161585      2.00530613595732     -0.25801746082450
  H   -0.37103732199092     -0.05223802582257     -0.14827365680094
  H   5.53699114973127     -0.48329368264684      0.23912340751646
  H   3.79666185092877      4.66099028474208     -0.49240729279378
  H   6.44453226290576      4.20129023323885     -0.47103984683795
  H   1.62585829716474     -0.94532457092437      0.09861216556255
