26
y direction displacement rescaled by 0.2
C  -2.94224352  -1.02385019  -1.25470385
C  -3.11261344  -1.64328269  -0.02512143
C  -2.04321534   0.01629510  -1.38042888
C  -1.27802281   0.48534639  -0.23827480
C  -1.57952357  -0.28609989   0.96997164
N  -2.42707104  -1.26163413   1.08534464
C  -0.42043011   1.49666430  -0.22069797
C  -0.14700221   2.43445633  -1.37201257
C   1.09247720   2.26889904  -2.22767329
H  -0.11727535   3.45012089  -0.92919679
H  -1.04566321   2.42443685  -2.02364554
C   1.45473653   0.79937179  -2.57557533
H   1.98223729   2.67968411  -1.70668736
H   0.99615286   2.84474570  -3.16758168
N   1.32314548  -0.04886897  -1.36648749
H   0.24713775   1.60944934   0.64525295
H   2.34077238   0.69893966  -3.13680052
H   0.59529341   0.41560295  -3.23099240
C   2.21350169  -1.09456102  -1.39331359
H   2.34869012  -1.48086804  -0.34742981
H   3.11780840  -1.04366637  -1.92826929
H   1.59065751  -1.94285295  -1.87221621
H  -3.50470974  -1.37367965  -2.12392726
H  -3.80582700  -2.47120118   0.09882656
H  -1.03382780   0.01379604   1.87156980
H  -1.88485258   0.50570070  -2.33731155
