26
-x direction displacement rescaled by 0.2
C  -2.93908981  -1.02296990  -1.26374178
C  -3.09880152  -1.63217263  -0.00632532
C  -2.03682046   0.03266680  -1.35265516
C  -1.33978593   0.40022037  -0.23970527
C  -1.56608303  -0.25060372   0.94949827
N  -2.44868024  -1.28043393   1.07299655
C  -0.22204680   1.47104355  -0.27292143
C  -0.15706694   2.43578359  -1.37383500
C   1.09510202   2.26834167  -2.24101095
H  -0.11966037   3.45112773  -0.92736730
H  -1.04619517   2.42156174  -2.02449593
C   1.39590024   0.81621866  -2.55952634
H   1.98415587   2.67835756  -1.70314492
H   0.99106435   2.85129963  -3.16556875
N   1.22685550  -0.02073080  -1.38793331
H   0.23743066   1.62027395   0.65359014
H   2.36010404   0.71590610  -3.12162656
H   0.60332567   0.43516897  -3.25613050
C   2.17408788  -1.10831431  -1.35791931
H   2.35060886  -1.48509897  -0.34171485
H   3.13239148  -1.03479364  -1.90897291
H   1.60721389  -1.96066685  -1.86827916
H  -3.50306397  -1.37373338  -2.12357726
H  -3.80544579  -2.47162244   0.09933068
H  -1.03370332   0.01252449   1.87085472
H  -1.88125672   0.50343270  -2.33688967
