26
displaced in minimum {i} direction displacement rescaled by 0.2
C  -2.94392788  -1.02250577  -1.25023851
C  -3.11337544  -1.64554968  -0.03054193
C  -2.04959800   0.01520820  -1.39197578
C  -1.29985074   0.48472220  -0.23028649
C  -1.58374268  -0.28962275   0.97450696
N  -2.42191168  -1.25616740   1.08878537
C  -0.41927278   1.42875086  -0.27053505
C  -0.15993123   2.44186158  -1.36957815
C   1.12933654   2.26199971  -2.23744476
H  -0.11508673   3.44540485  -0.92665797
H  -1.04404676   2.42512871  -2.02018350
C   1.38502048   0.78012342  -2.55436738
H   1.97774757   2.67915581  -1.70591791
H   0.99100589   2.84530337  -3.16717342
N   1.48833683   0.11583954  -1.32484162
H   0.25346163   1.60309360   0.64122805
H   2.32537457   0.68748467  -3.12812066
H   0.58853158   0.41344213  -3.24927918
C   2.13801658  -1.15229605  -1.38070345
H   2.36343648  -1.48233624  -0.35024764
H   3.10256063  -1.02737214  -1.93188669
H   1.59802826  -1.95504024  -1.88162283
H  -3.50495979  -1.37279863  -2.12378432
H  -3.80587228  -2.47089829   0.09878032
H  -1.03318345   0.01365912   1.87250481
H  -1.88580833   0.50647529  -2.33789250
