3

O      -1.599474670500000      4.412123569200000     -0.019881047700000
H      -0.610148321800000      4.385924720400000      0.014036305900000
H      -1.888840021000000      3.833201323300000      0.729598850600000
3

O      -1.582985888958848      4.397830940610228     -0.001403516928769
H      -0.616708483531046      4.393757344814727      0.003870093879822
H      -1.898753748311393      3.839652631778061      0.721295881368699
3

O      -1.561110885642376      4.378916219879852      0.022951725151830
H      -0.625081999181001      4.404252960703521     -0.009773319959282
H      -1.912222842712714      3.848028810803553      0.710566605659514
3

O      -1.561220111475178      4.379012617583102      0.022783293681948
H      -0.625057888992576      4.404177318072676     -0.009689124002122
H      -1.912129070700971      3.847991280715426      0.710639955158429
3

O      -1.561435515749843      4.379196011896407      0.022458230669410
H      -0.625008029302777      4.404030331546334     -0.009526740638619
H      -1.911946187095119      3.847921265436947      0.710780798643417
3

O      -1.561750653964318      4.379447952867817      0.021999039885905
H      -0.624929534332814      4.403820145979442     -0.009298028992478
H      -1.911683331391630      3.847828699857313      0.710978213584675
3

O      -1.562154312287645      4.379741983614326      0.021436475002955
H      -0.624819530918851      4.403557786619329     -0.009020427613386
H      -1.911353971224385      3.847727848650764      0.711218047992497
